78

N   20.747000  23.133000  21.972000
H   21.184000  23.453000  22.838000
C   21.501000  22.745000  20.888000
C   20.705000  22.883000  19.697000
C   19.517000  23.460000  20.061000
C   19.560000  23.707000  21.547000
C   21.085000  22.312000  18.385000
H   20.202000  21.786000  17.984000
H   21.898000  21.594000  18.584000
H   21.439000  23.048000  17.643000
O   22.603000  22.341000  21.054000
C   18.387000  23.892000  19.275000
H   17.493000  24.198000  19.832000
C   18.297000  23.848000  17.966000
H   17.355000  24.051000  17.448000
H   19.119000  23.491000  17.338000
C   18.668000  24.497000  22.357000
H   17.766000  24.924000  21.902000
N   19.441000  24.131000  24.749000
H   20.271000  23.554000  24.624000
C   18.668000  24.785000  23.777000
C   17.728000  25.657000  24.432000
C   17.872000  25.421000  25.834000
C   18.903000  24.458000  26.014000
C   16.983000  26.755000  23.732000
H   17.440000  26.949000  22.746000
H   16.987000  27.761000  24.186000
H   15.951000  26.478000  23.457000
C   19.396000  23.890000  27.182000
H   19.049000  24.410000  28.083000
N   20.315000  21.908000  26.188000
H   19.689000  21.816000  25.390000
C   20.249000  22.726000  27.230000
C   21.185000  22.332000  28.198000
C   21.816000  21.173000  27.642000
C   21.260000  20.929000  26.391000
C   22.867000  20.292000  28.281000
H   23.932000  20.362000  28.002000
H   22.513000  19.249000  28.224000
H   22.955000  20.655000  29.319000
C   21.720000  19.964000  25.390000
H   22.509000  19.240000  25.622000
N   20.198000  20.544000  23.465000
H   19.344000  20.531000  24.026000
C   21.258000  19.876000  24.066000
C   21.950000  19.113000  22.986000
C   21.241000  19.307000  21.811000
C   20.048000  20.078000  22.140000
C   23.170000  18.329000  23.283000
H   23.595000  17.814000  22.405000
H   22.924000  17.591000  24.066000
H   24.039000  18.912000  23.633000
O   19.065000  20.256000  21.454000
C   21.579000  18.684000  20.541000
H   22.490000  18.078000  20.457000
C   20.990000  18.627000  19.366000
H   21.400000  18.016000  18.556000
H   20.012000  19.113000  19.286000
C   21.337000  22.942000  29.560000
C   20.327000  22.453000  30.563000
C   20.781000  21.036000  30.936000
O   20.260000  20.025000  30.102000
O   21.492000  20.809000  31.874000
H   21.193000  24.035000  29.523000
H   22.380000  22.768000  29.877000
H   19.267000  22.436000  30.255000
H   20.292000  23.089000  31.464000
H   20.561000  19.207000  30.535000
C   17.020000  26.110000  26.853000
C   15.717000  25.315000  27.129000
C   15.976000  23.900000  27.656000
O   16.397000  23.611000  28.710000
O   15.761000  22.967000  26.621000
H   17.578000  26.315000  27.782000
H   16.800000  27.091000  26.397000
H   15.125000  25.896000  27.858000
H   15.167000  25.140000  26.189000
H   15.531000  23.523000  25.856000
